37
c8c1im+ il.ff
N            0.000000        0.000000        0.000000
C            1.315000        0.000000        0.000000
N            1.760440        1.237258        0.000000
C            0.671607        2.081844        0.000000
C           -0.425532        1.310762        0.000000
C           -0.870246       -1.179758        0.000000
H            1.936006       -0.883602        0.000000
C            3.166070        1.653625        0.000000
H            0.697051        3.161544        0.000000
H           -1.450020        1.652557        0.000000
H           -1.499664       -1.167599       -0.889823
H           -0.259374       -2.082496       -0.000000
H           -1.499664       -1.167599        0.889823
C            4.064794        0.416638        0.000000
H            3.369026        2.249547       -0.889823
H            3.369026        2.249547        0.889823
C            5.530829        0.850897        0.000000
H            3.863035       -0.179691        0.889823
H            3.863035       -0.179691       -0.889823
C            6.429553       -0.386090        0.000000
H            5.733785        1.446820        0.889823
H            5.733785        1.446820       -0.889823
C            7.895588        0.048170        0.000000
H            6.227794       -0.982419       -0.889823
H            6.227794       -0.982419        0.889823
C            8.794312       -1.188817        0.000000
H            8.098544        0.644092        0.889823
H            8.098544        0.644092       -0.889823
C           10.260347       -0.754558        0.000000
H            8.592553       -1.785146       -0.889823
H            8.592553       -1.785146        0.889823
C           11.159071       -1.991545        0.000000
H           10.463303       -0.158635        0.889823
H           10.463303       -0.158635       -0.889823
H           12.204184       -1.681968        0.000000
H           10.957312       -2.587874       -0.889823
H           10.957312       -2.587874        0.889823
