21
cholinium il.ff
N4        -2.76844        0.42637       -0.33761
C1        -1.28508        0.43893       -0.33929
C1        -3.23170        0.55081        1.06513
C1        -3.22189       -0.87046       -0.89473
H1        -2.92786        1.52841        1.50158
H1        -2.80231       -0.25615        1.70079
H1        -4.33530        0.45819        1.14380
H1        -0.89034        1.38981        0.08472
H1        -0.88302        0.33341       -1.37224
H1        -0.87136       -0.39705        0.26899
H1        -2.90943       -0.98071       -1.95714
H1        -4.32548       -0.97871       -0.83967
H1        -2.79307       -1.72330       -0.32163
C1A       -3.23844        1.57500       -1.17308
H1        -2.83844        2.52855       -0.75687
COL       -4.76723        1.73417       -1.29332
H1        -2.83356        1.47587       -2.20689
HC        -5.21476        1.90282       -0.29129
HC        -5.21093        0.83260       -1.76549
OH        -5.04432        2.84487       -2.10056
HO        -6.03341        2.91557       -2.14578
