17
pmbzoat il.ff
CO2        0.00000        0.00000        0.00000
O2        -0.57723        1.06985        0.00000
O2        -0.57722       -1.06985       -0.00000
CBI        1.50558       -0.00000       -0.00000
CAO        2.21910        1.20322       -0.00000
CAO        2.21904       -1.20321       -0.00000
HA         1.68708        2.15102       -0.00001
CAM        3.61313        1.20399       -0.00001
CAM        3.61297       -1.20335       -0.00001
CBP        4.31839       -0.00013       -0.00000
HA         1.68722       -2.15112       -0.00001
HA         4.14435        2.15190       -0.00002
CT         5.83641       -0.01080       -0.00003
HA         4.14696       -2.14978       -0.00002
HC         6.23959        1.00430        0.00144
HC         6.21128       -0.52638       -0.88685
HC         6.21132       -0.52893        0.88529
